
---------- Begin Simulation Statistics ----------
sim_seconds                                  0.091418                       # Number of seconds simulated
sim_ticks                                 91417995000                       # Number of ticks simulated
final_tick                                91417995000                       # Number of ticks from beginning of simulation (restored from checkpoints and never reset)
sim_freq                                 1000000000000                       # Frequency of simulated ticks
host_inst_rate                                 998203                       # Simulator instruction rate (inst/s)
host_op_rate                                  1643561                       # Simulator op (including micro ops) rate (op/s)
host_tick_rate                             2046519367                       # Simulator tick rate (ticks/s)
host_mem_usage                                 668384                       # Number of bytes of host memory used
host_seconds                                    44.67                       # Real time elapsed on the host
sim_insts                                    44589715                       # Number of instructions simulated
sim_ops                                      73417860                       # Number of ops (including micro ops) simulated
system.voltage_domain.voltage                       1                       # Voltage in Volts
system.clk_domain.clock                          1000                       # Clock period in ticks
system.mem_ctrls.pwrStateResidencyTicks::UNDEFINED  91417995000                       # Cumulative time (in ticks) in various power states
system.mem_ctrls.bytes_read::cpu.inst           22784                       # Number of bytes read from this memory
system.mem_ctrls.bytes_read::cpu.data          845568                       # Number of bytes read from this memory
system.mem_ctrls.bytes_read::total             868352                       # Number of bytes read from this memory
system.mem_ctrls.bytes_inst_read::cpu.inst        22784                       # Number of instructions bytes read from this memory
system.mem_ctrls.bytes_inst_read::total         22784                       # Number of instructions bytes read from this memory
system.mem_ctrls.bytes_written::writebacks       572608                       # Number of bytes written to this memory
system.mem_ctrls.bytes_written::total          572608                       # Number of bytes written to this memory
system.mem_ctrls.num_reads::cpu.inst              356                       # Number of read requests responded to by this memory
system.mem_ctrls.num_reads::cpu.data            13212                       # Number of read requests responded to by this memory
system.mem_ctrls.num_reads::total               13568                       # Number of read requests responded to by this memory
system.mem_ctrls.num_writes::writebacks          8947                       # Number of write requests responded to by this memory
system.mem_ctrls.num_writes::total               8947                       # Number of write requests responded to by this memory
system.mem_ctrls.bw_read::cpu.inst             249229                       # Total read bandwidth from this memory (bytes/s)
system.mem_ctrls.bw_read::cpu.data            9249470                       # Total read bandwidth from this memory (bytes/s)
system.mem_ctrls.bw_read::total               9498699                       # Total read bandwidth from this memory (bytes/s)
system.mem_ctrls.bw_inst_read::cpu.inst        249229                       # Instruction read bandwidth from this memory (bytes/s)
system.mem_ctrls.bw_inst_read::total           249229                       # Instruction read bandwidth from this memory (bytes/s)
system.mem_ctrls.bw_write::writebacks         6263625                       # Write bandwidth from this memory (bytes/s)
system.mem_ctrls.bw_write::total              6263625                       # Write bandwidth from this memory (bytes/s)
system.mem_ctrls.bw_total::writebacks         6263625                       # Total bandwidth to/from this memory (bytes/s)
system.mem_ctrls.bw_total::cpu.inst            249229                       # Total bandwidth to/from this memory (bytes/s)
system.mem_ctrls.bw_total::cpu.data           9249470                       # Total bandwidth to/from this memory (bytes/s)
system.mem_ctrls.bw_total::total             15762323                       # Total bandwidth to/from this memory (bytes/s)
system.pwrStateResidencyTicks::UNDEFINED  91417995000                       # Cumulative time (in ticks) in various power states
system.cpu_voltage_domain.voltage                   1                       # Voltage in Volts
system.cpu_clk_domain.clock                       500                       # Clock period in ticks
system.cpu.dtb.walker.pwrStateResidencyTicks::UNDEFINED  91417995000                       # Cumulative time (in ticks) in various power states
system.cpu.dtb.rdAccesses                    20877741                       # TLB accesses on read requests
system.cpu.dtb.wrAccesses                     5816541                       # TLB accesses on write requests
system.cpu.dtb.rdMisses                           166                       # TLB misses on read requests
system.cpu.dtb.wrMisses                           106                       # TLB misses on write requests
system.cpu.apic_clk_domain.clock                 8000                       # Clock period in ticks
system.cpu.interrupts.pwrStateResidencyTicks::UNDEFINED  91417995000                       # Cumulative time (in ticks) in various power states
system.cpu.itb.walker.pwrStateResidencyTicks::UNDEFINED  91417995000                       # Cumulative time (in ticks) in various power states
system.cpu.itb.rdAccesses                           0                       # TLB accesses on read requests
system.cpu.itb.wrAccesses                    59916909                       # TLB accesses on write requests
system.cpu.itb.rdMisses                             0                       # TLB misses on read requests
system.cpu.itb.wrMisses                            36                       # TLB misses on write requests
system.cpu.workload.numSyscalls                     9                       # Number of system calls
system.cpu.pwrStateResidencyTicks::ON     91417995000                       # Cumulative time (in ticks) in various power states
system.cpu.numCycles                        182835990                       # number of cpu cycles simulated
system.cpu.numWorkItemsStarted                      0                       # number of work items this cpu started
system.cpu.numWorkItemsCompleted                    0                       # number of work items this cpu completed
system.cpu.committedInsts                    44589715                       # Number of instructions committed
system.cpu.committedOps                      73417860                       # Number of ops (including micro ops) committed
system.cpu.num_int_alu_accesses              72895936                       # Number of integer alu accesses
system.cpu.num_fp_alu_accesses                   1959                       # Number of float alu accesses
system.cpu.num_vec_alu_accesses                     0                       # Number of vector alu accesses
system.cpu.num_func_calls                      944900                       # number of times a function call or return occured
system.cpu.num_conditional_control_insts      4232452                       # number of instructions that are conditional controls
system.cpu.num_int_insts                     72895936                       # number of integer instructions
system.cpu.num_fp_insts                          1959                       # number of float instructions
system.cpu.num_vec_insts                            0                       # number of vector instructions
system.cpu.num_int_register_reads           163691601                       # number of times the integer registers were read
system.cpu.num_int_register_writes           63686411                       # number of times the integer registers were written
system.cpu.num_fp_register_reads                 3779                       # number of times the floating registers were read
system.cpu.num_fp_register_writes                1484                       # number of times the floating registers were written
system.cpu.num_vec_register_reads                   0                       # number of times the vector registers were read
system.cpu.num_vec_register_writes                  0                       # number of times the vector registers were written
system.cpu.num_cc_register_reads             27636619                       # number of times the CC registers were read
system.cpu.num_cc_register_writes            24933085                       # number of times the CC registers were written
system.cpu.num_mem_refs                      26694277                       # number of memory refs
system.cpu.num_load_insts                    20877737                       # Number of load instructions
system.cpu.num_store_insts                    5816540                       # Number of store instructions
system.cpu.num_idle_cycles                          0                       # Number of idle cycles
system.cpu.num_busy_cycles                  182835990                       # Number of busy cycles
system.cpu.not_idle_fraction                        1                       # Percentage of non-idle cycles
system.cpu.idle_fraction                            0                       # Percentage of idle cycles
system.cpu.Branches                           5574736                       # Number of branches fetched
system.cpu.op_class::No_OpClass                175846      0.24%      0.24% # Class of executed instruction
system.cpu.op_class::IntAlu                  45543779     62.03%     62.27% # Class of executed instruction
system.cpu.op_class::IntMult                        4      0.00%     62.27% # Class of executed instruction
system.cpu.op_class::IntDiv                   1002994      1.37%     63.64% # Class of executed instruction
system.cpu.op_class::FloatAdd                      10      0.00%     63.64% # Class of executed instruction
system.cpu.op_class::FloatCmp                       0      0.00%     63.64% # Class of executed instruction
system.cpu.op_class::FloatCvt                       0      0.00%     63.64% # Class of executed instruction
system.cpu.op_class::FloatMult                      0      0.00%     63.64% # Class of executed instruction
system.cpu.op_class::FloatMultAcc                   0      0.00%     63.64% # Class of executed instruction
system.cpu.op_class::FloatDiv                       0      0.00%     63.64% # Class of executed instruction
system.cpu.op_class::FloatMisc                      0      0.00%     63.64% # Class of executed instruction
system.cpu.op_class::FloatSqrt                      0      0.00%     63.64% # Class of executed instruction
system.cpu.op_class::SimdAdd                      374      0.00%     63.64% # Class of executed instruction
system.cpu.op_class::SimdAddAcc                     0      0.00%     63.64% # Class of executed instruction
system.cpu.op_class::SimdAlu                       68      0.00%     63.64% # Class of executed instruction
system.cpu.op_class::SimdCmp                        0      0.00%     63.64% # Class of executed instruction
system.cpu.op_class::SimdCvt                      108      0.00%     63.64% # Class of executed instruction
system.cpu.op_class::SimdMisc                     214      0.00%     63.64% # Class of executed instruction
system.cpu.op_class::SimdMult                       0      0.00%     63.64% # Class of executed instruction
system.cpu.op_class::SimdMultAcc                    0      0.00%     63.64% # Class of executed instruction
system.cpu.op_class::SimdShift                    186      0.00%     63.64% # Class of executed instruction
system.cpu.op_class::SimdShiftAcc                   0      0.00%     63.64% # Class of executed instruction
system.cpu.op_class::SimdSqrt                       0      0.00%     63.64% # Class of executed instruction
system.cpu.op_class::SimdFloatAdd                   0      0.00%     63.64% # Class of executed instruction
system.cpu.op_class::SimdFloatAlu                   0      0.00%     63.64% # Class of executed instruction
system.cpu.op_class::SimdFloatCmp                   0      0.00%     63.64% # Class of executed instruction
system.cpu.op_class::SimdFloatCvt                   0      0.00%     63.64% # Class of executed instruction
system.cpu.op_class::SimdFloatDiv                   0      0.00%     63.64% # Class of executed instruction
system.cpu.op_class::SimdFloatMisc                  0      0.00%     63.64% # Class of executed instruction
system.cpu.op_class::SimdFloatMult                  0      0.00%     63.64% # Class of executed instruction
system.cpu.op_class::SimdFloatMultAcc               0      0.00%     63.64% # Class of executed instruction
system.cpu.op_class::SimdFloatSqrt                  0      0.00%     63.64% # Class of executed instruction
system.cpu.op_class::MemRead                 20877677     28.44%     92.08% # Class of executed instruction
system.cpu.op_class::MemWrite                 5816113      7.92%    100.00% # Class of executed instruction
system.cpu.op_class::FloatMemRead                  60      0.00%    100.00% # Class of executed instruction
system.cpu.op_class::FloatMemWrite                427      0.00%    100.00% # Class of executed instruction
system.cpu.op_class::IprAccess                      0      0.00%    100.00% # Class of executed instruction
system.cpu.op_class::InstPrefetch                   0      0.00%    100.00% # Class of executed instruction
system.cpu.op_class::total                   73417860                       # Class of executed instruction
system.cpu.dcache.tags.pwrStateResidencyTicks::UNDEFINED  91417995000                       # Cumulative time (in ticks) in various power states
system.cpu.dcache.tags.tagsinuse           510.019826                       # Cycle average of tags in use
system.cpu.dcache.tags.total_refs            26694282                       # Total number of references to valid blocks.
system.cpu.dcache.tags.sampled_refs             45427                       # Sample count of references to valid blocks.
system.cpu.dcache.tags.avg_refs            587.630308                       # Average number of references to valid blocks.
system.cpu.dcache.tags.warmup_cycle            765000                       # Cycle when the warmup percentage was hit.
system.cpu.dcache.tags.occ_blocks::cpu.data   510.019826                       # Average occupied blocks per requestor
system.cpu.dcache.tags.occ_percent::cpu.data     0.996132                       # Average percentage of cache occupancy
system.cpu.dcache.tags.occ_percent::total     0.996132                       # Average percentage of cache occupancy
system.cpu.dcache.tags.occ_task_id_blocks::1024          512                       # Occupied blocks per task id
system.cpu.dcache.tags.age_task_id_blocks_1024::0           11                       # Occupied blocks per task id
system.cpu.dcache.tags.age_task_id_blocks_1024::1           16                       # Occupied blocks per task id
system.cpu.dcache.tags.age_task_id_blocks_1024::2           33                       # Occupied blocks per task id
system.cpu.dcache.tags.age_task_id_blocks_1024::3          450                       # Occupied blocks per task id
system.cpu.dcache.tags.age_task_id_blocks_1024::4            2                       # Occupied blocks per task id
system.cpu.dcache.tags.occ_task_id_percent::1024            1                       # Percentage of cache occupancy per task id
system.cpu.dcache.tags.tag_accesses          53433991                       # Number of tag accesses
system.cpu.dcache.tags.data_accesses         53433991                       # Number of data accesses
system.cpu.dcache.pwrStateResidencyTicks::UNDEFINED  91417995000                       # Cumulative time (in ticks) in various power states
system.cpu.dcache.ReadReq_hits::cpu.data     20839012                       # number of ReadReq hits
system.cpu.dcache.ReadReq_hits::total        20839012                       # number of ReadReq hits
system.cpu.dcache.WriteReq_hits::cpu.data      5800306                       # number of WriteReq hits
system.cpu.dcache.WriteReq_hits::total        5800306                       # number of WriteReq hits
system.cpu.dcache.demand_hits::cpu.data      26639318                       # number of demand (read+write) hits
system.cpu.dcache.demand_hits::total         26639318                       # number of demand (read+write) hits
system.cpu.dcache.overall_hits::cpu.data     26639318                       # number of overall hits
system.cpu.dcache.overall_hits::total        26639318                       # number of overall hits
system.cpu.dcache.ReadReq_misses::cpu.data        38729                       # number of ReadReq misses
system.cpu.dcache.ReadReq_misses::total         38729                       # number of ReadReq misses
system.cpu.dcache.WriteReq_misses::cpu.data        16235                       # number of WriteReq misses
system.cpu.dcache.WriteReq_misses::total        16235                       # number of WriteReq misses
system.cpu.dcache.demand_misses::cpu.data        54964                       # number of demand (read+write) misses
system.cpu.dcache.demand_misses::total          54964                       # number of demand (read+write) misses
system.cpu.dcache.overall_misses::cpu.data        54964                       # number of overall misses
system.cpu.dcache.overall_misses::total         54964                       # number of overall misses
system.cpu.dcache.ReadReq_miss_latency::cpu.data   3362470000                       # number of ReadReq miss cycles
system.cpu.dcache.ReadReq_miss_latency::total   3362470000                       # number of ReadReq miss cycles
system.cpu.dcache.WriteReq_miss_latency::cpu.data   1431157000                       # number of WriteReq miss cycles
system.cpu.dcache.WriteReq_miss_latency::total   1431157000                       # number of WriteReq miss cycles
system.cpu.dcache.demand_miss_latency::cpu.data   4793627000                       # number of demand (read+write) miss cycles
system.cpu.dcache.demand_miss_latency::total   4793627000                       # number of demand (read+write) miss cycles
system.cpu.dcache.overall_miss_latency::cpu.data   4793627000                       # number of overall miss cycles
system.cpu.dcache.overall_miss_latency::total   4793627000                       # number of overall miss cycles
system.cpu.dcache.ReadReq_accesses::cpu.data     20877741                       # number of ReadReq accesses(hits+misses)
system.cpu.dcache.ReadReq_accesses::total     20877741                       # number of ReadReq accesses(hits+misses)
system.cpu.dcache.WriteReq_accesses::cpu.data      5816541                       # number of WriteReq accesses(hits+misses)
system.cpu.dcache.WriteReq_accesses::total      5816541                       # number of WriteReq accesses(hits+misses)
system.cpu.dcache.demand_accesses::cpu.data     26694282                       # number of demand (read+write) accesses
system.cpu.dcache.demand_accesses::total     26694282                       # number of demand (read+write) accesses
system.cpu.dcache.overall_accesses::cpu.data     26694282                       # number of overall (read+write) accesses
system.cpu.dcache.overall_accesses::total     26694282                       # number of overall (read+write) accesses
system.cpu.dcache.ReadReq_miss_rate::cpu.data     0.001855                       # miss rate for ReadReq accesses
system.cpu.dcache.ReadReq_miss_rate::total     0.001855                       # miss rate for ReadReq accesses
system.cpu.dcache.WriteReq_miss_rate::cpu.data     0.002791                       # miss rate for WriteReq accesses
system.cpu.dcache.WriteReq_miss_rate::total     0.002791                       # miss rate for WriteReq accesses
system.cpu.dcache.demand_miss_rate::cpu.data     0.002059                       # miss rate for demand accesses
system.cpu.dcache.demand_miss_rate::total     0.002059                       # miss rate for demand accesses
system.cpu.dcache.overall_miss_rate::cpu.data     0.002059                       # miss rate for overall accesses
system.cpu.dcache.overall_miss_rate::total     0.002059                       # miss rate for overall accesses
system.cpu.dcache.ReadReq_avg_miss_latency::cpu.data 86820.470449                       # average ReadReq miss latency
system.cpu.dcache.ReadReq_avg_miss_latency::total 86820.470449                       # average ReadReq miss latency
system.cpu.dcache.WriteReq_avg_miss_latency::cpu.data 88152.571605                       # average WriteReq miss latency
system.cpu.dcache.WriteReq_avg_miss_latency::total 88152.571605                       # average WriteReq miss latency
system.cpu.dcache.demand_avg_miss_latency::cpu.data 87213.940033                       # average overall miss latency
system.cpu.dcache.demand_avg_miss_latency::total 87213.940033                       # average overall miss latency
system.cpu.dcache.overall_avg_miss_latency::cpu.data 87213.940033                       # average overall miss latency
system.cpu.dcache.overall_avg_miss_latency::total 87213.940033                       # average overall miss latency
system.cpu.dcache.blocked_cycles::no_mshrs            0                       # number of cycles access was blocked
system.cpu.dcache.blocked_cycles::no_targets            0                       # number of cycles access was blocked
system.cpu.dcache.blocked::no_mshrs                 0                       # number of cycles access was blocked
system.cpu.dcache.blocked::no_targets               0                       # number of cycles access was blocked
system.cpu.dcache.avg_blocked_cycles::no_mshrs          nan                       # average number of cycles each access was blocked
system.cpu.dcache.avg_blocked_cycles::no_targets          nan                       # average number of cycles each access was blocked
system.cpu.dcache.writebacks::writebacks        43416                       # number of writebacks
system.cpu.dcache.writebacks::total             43416                       # number of writebacks
system.cpu.dcache.ReadReq_mshr_misses::cpu.data        38729                       # number of ReadReq MSHR misses
system.cpu.dcache.ReadReq_mshr_misses::total        38729                       # number of ReadReq MSHR misses
system.cpu.dcache.WriteReq_mshr_misses::cpu.data        16235                       # number of WriteReq MSHR misses
system.cpu.dcache.WriteReq_mshr_misses::total        16235                       # number of WriteReq MSHR misses
system.cpu.dcache.demand_mshr_misses::cpu.data        54964                       # number of demand (read+write) MSHR misses
system.cpu.dcache.demand_mshr_misses::total        54964                       # number of demand (read+write) MSHR misses
system.cpu.dcache.overall_mshr_misses::cpu.data        54964                       # number of overall MSHR misses
system.cpu.dcache.overall_mshr_misses::total        54964                       # number of overall MSHR misses
system.cpu.dcache.ReadReq_mshr_miss_latency::cpu.data   3323741000                       # number of ReadReq MSHR miss cycles
system.cpu.dcache.ReadReq_mshr_miss_latency::total   3323741000                       # number of ReadReq MSHR miss cycles
system.cpu.dcache.WriteReq_mshr_miss_latency::cpu.data   1414922000                       # number of WriteReq MSHR miss cycles
system.cpu.dcache.WriteReq_mshr_miss_latency::total   1414922000                       # number of WriteReq MSHR miss cycles
system.cpu.dcache.demand_mshr_miss_latency::cpu.data   4738663000                       # number of demand (read+write) MSHR miss cycles
system.cpu.dcache.demand_mshr_miss_latency::total   4738663000                       # number of demand (read+write) MSHR miss cycles
system.cpu.dcache.overall_mshr_miss_latency::cpu.data   4738663000                       # number of overall MSHR miss cycles
system.cpu.dcache.overall_mshr_miss_latency::total   4738663000                       # number of overall MSHR miss cycles
system.cpu.dcache.ReadReq_mshr_miss_rate::cpu.data     0.001855                       # mshr miss rate for ReadReq accesses
system.cpu.dcache.ReadReq_mshr_miss_rate::total     0.001855                       # mshr miss rate for ReadReq accesses
system.cpu.dcache.WriteReq_mshr_miss_rate::cpu.data     0.002791                       # mshr miss rate for WriteReq accesses
system.cpu.dcache.WriteReq_mshr_miss_rate::total     0.002791                       # mshr miss rate for WriteReq accesses
system.cpu.dcache.demand_mshr_miss_rate::cpu.data     0.002059                       # mshr miss rate for demand accesses
system.cpu.dcache.demand_mshr_miss_rate::total     0.002059                       # mshr miss rate for demand accesses
system.cpu.dcache.overall_mshr_miss_rate::cpu.data     0.002059                       # mshr miss rate for overall accesses
system.cpu.dcache.overall_mshr_miss_rate::total     0.002059                       # mshr miss rate for overall accesses
system.cpu.dcache.ReadReq_avg_mshr_miss_latency::cpu.data 85820.470449                       # average ReadReq mshr miss latency
system.cpu.dcache.ReadReq_avg_mshr_miss_latency::total 85820.470449                       # average ReadReq mshr miss latency
system.cpu.dcache.WriteReq_avg_mshr_miss_latency::cpu.data 87152.571605                       # average WriteReq mshr miss latency
system.cpu.dcache.WriteReq_avg_mshr_miss_latency::total 87152.571605                       # average WriteReq mshr miss latency
system.cpu.dcache.demand_avg_mshr_miss_latency::cpu.data 86213.940033                       # average overall mshr miss latency
system.cpu.dcache.demand_avg_mshr_miss_latency::total 86213.940033                       # average overall mshr miss latency
system.cpu.dcache.overall_avg_mshr_miss_latency::cpu.data 86213.940033                       # average overall mshr miss latency
system.cpu.dcache.overall_avg_mshr_miss_latency::total 86213.940033                       # average overall mshr miss latency
system.cpu.dcache.replacements                  44915                       # number of replacements
system.cpu.dtb_walker_cache.tags.pwrStateResidencyTicks::UNDEFINED  91417995000                       # Cumulative time (in ticks) in various power states
system.cpu.dtb_walker_cache.tags.tagsinuse            0                       # Cycle average of tags in use
system.cpu.dtb_walker_cache.tags.total_refs            0                       # Total number of references to valid blocks.
system.cpu.dtb_walker_cache.tags.sampled_refs            0                       # Sample count of references to valid blocks.
system.cpu.dtb_walker_cache.tags.avg_refs          nan                       # Average number of references to valid blocks.
system.cpu.dtb_walker_cache.tags.warmup_cycle            0                       # Cycle when the warmup percentage was hit.
system.cpu.dtb_walker_cache.tags.tag_accesses            0                       # Number of tag accesses
system.cpu.dtb_walker_cache.tags.data_accesses            0                       # Number of data accesses
system.cpu.dtb_walker_cache.pwrStateResidencyTicks::UNDEFINED  91417995000                       # Cumulative time (in ticks) in various power states
system.cpu.dtb_walker_cache.blocked_cycles::no_mshrs            0                       # number of cycles access was blocked
system.cpu.dtb_walker_cache.blocked_cycles::no_targets            0                       # number of cycles access was blocked
system.cpu.dtb_walker_cache.blocked::no_mshrs            0                       # number of cycles access was blocked
system.cpu.dtb_walker_cache.blocked::no_targets            0                       # number of cycles access was blocked
system.cpu.dtb_walker_cache.avg_blocked_cycles::no_mshrs          nan                       # average number of cycles each access was blocked
system.cpu.dtb_walker_cache.avg_blocked_cycles::no_targets          nan                       # average number of cycles each access was blocked
system.cpu.dtb_walker_cache.replacements            0                       # number of replacements
system.cpu.icache.tags.pwrStateResidencyTicks::UNDEFINED  91417995000                       # Cumulative time (in ticks) in various power states
system.cpu.icache.tags.tagsinuse           281.263837                       # Cycle average of tags in use
system.cpu.icache.tags.total_refs            59916909                       # Total number of references to valid blocks.
system.cpu.icache.tags.sampled_refs               356                       # Sample count of references to valid blocks.
system.cpu.icache.tags.avg_refs          168305.924157                       # Average number of references to valid blocks.
system.cpu.icache.tags.warmup_cycle            445000                       # Cycle when the warmup percentage was hit.
system.cpu.icache.tags.occ_blocks::cpu.inst   281.263837                       # Average occupied blocks per requestor
system.cpu.icache.tags.occ_percent::cpu.inst     0.549343                       # Average percentage of cache occupancy
system.cpu.icache.tags.occ_percent::total     0.549343                       # Average percentage of cache occupancy
system.cpu.icache.tags.occ_task_id_blocks::1024          310                       # Occupied blocks per task id
system.cpu.icache.tags.age_task_id_blocks_1024::0           19                       # Occupied blocks per task id
system.cpu.icache.tags.age_task_id_blocks_1024::1           19                       # Occupied blocks per task id
system.cpu.icache.tags.age_task_id_blocks_1024::4          272                       # Occupied blocks per task id
system.cpu.icache.tags.occ_task_id_percent::1024     0.605469                       # Percentage of cache occupancy per task id
system.cpu.icache.tags.tag_accesses         119834174                       # Number of tag accesses
system.cpu.icache.tags.data_accesses        119834174                       # Number of data accesses
system.cpu.icache.pwrStateResidencyTicks::UNDEFINED  91417995000                       # Cumulative time (in ticks) in various power states
system.cpu.icache.ReadReq_hits::cpu.inst     59916553                       # number of ReadReq hits
system.cpu.icache.ReadReq_hits::total        59916553                       # number of ReadReq hits
system.cpu.icache.demand_hits::cpu.inst      59916553                       # number of demand (read+write) hits
system.cpu.icache.demand_hits::total         59916553                       # number of demand (read+write) hits
system.cpu.icache.overall_hits::cpu.inst     59916553                       # number of overall hits
system.cpu.icache.overall_hits::total        59916553                       # number of overall hits
system.cpu.icache.ReadReq_misses::cpu.inst          356                       # number of ReadReq misses
system.cpu.icache.ReadReq_misses::total           356                       # number of ReadReq misses
system.cpu.icache.demand_misses::cpu.inst          356                       # number of demand (read+write) misses
system.cpu.icache.demand_misses::total            356                       # number of demand (read+write) misses
system.cpu.icache.overall_misses::cpu.inst          356                       # number of overall misses
system.cpu.icache.overall_misses::total           356                       # number of overall misses
system.cpu.icache.ReadReq_miss_latency::cpu.inst     68501000                       # number of ReadReq miss cycles
system.cpu.icache.ReadReq_miss_latency::total     68501000                       # number of ReadReq miss cycles
system.cpu.icache.demand_miss_latency::cpu.inst     68501000                       # number of demand (read+write) miss cycles
system.cpu.icache.demand_miss_latency::total     68501000                       # number of demand (read+write) miss cycles
system.cpu.icache.overall_miss_latency::cpu.inst     68501000                       # number of overall miss cycles
system.cpu.icache.overall_miss_latency::total     68501000                       # number of overall miss cycles
system.cpu.icache.ReadReq_accesses::cpu.inst     59916909                       # number of ReadReq accesses(hits+misses)
system.cpu.icache.ReadReq_accesses::total     59916909                       # number of ReadReq accesses(hits+misses)
system.cpu.icache.demand_accesses::cpu.inst     59916909                       # number of demand (read+write) accesses
system.cpu.icache.demand_accesses::total     59916909                       # number of demand (read+write) accesses
system.cpu.icache.overall_accesses::cpu.inst     59916909                       # number of overall (read+write) accesses
system.cpu.icache.overall_accesses::total     59916909                       # number of overall (read+write) accesses
system.cpu.icache.ReadReq_miss_rate::cpu.inst     0.000006                       # miss rate for ReadReq accesses
system.cpu.icache.ReadReq_miss_rate::total     0.000006                       # miss rate for ReadReq accesses
system.cpu.icache.demand_miss_rate::cpu.inst     0.000006                       # miss rate for demand accesses
system.cpu.icache.demand_miss_rate::total     0.000006                       # miss rate for demand accesses
system.cpu.icache.overall_miss_rate::cpu.inst     0.000006                       # miss rate for overall accesses
system.cpu.icache.overall_miss_rate::total     0.000006                       # miss rate for overall accesses
system.cpu.icache.ReadReq_avg_miss_latency::cpu.inst 192418.539326                       # average ReadReq miss latency
system.cpu.icache.ReadReq_avg_miss_latency::total 192418.539326                       # average ReadReq miss latency
system.cpu.icache.demand_avg_miss_latency::cpu.inst 192418.539326                       # average overall miss latency
system.cpu.icache.demand_avg_miss_latency::total 192418.539326                       # average overall miss latency
system.cpu.icache.overall_avg_miss_latency::cpu.inst 192418.539326                       # average overall miss latency
system.cpu.icache.overall_avg_miss_latency::total 192418.539326                       # average overall miss latency
system.cpu.icache.blocked_cycles::no_mshrs            0                       # number of cycles access was blocked
system.cpu.icache.blocked_cycles::no_targets            0                       # number of cycles access was blocked
system.cpu.icache.blocked::no_mshrs                 0                       # number of cycles access was blocked
system.cpu.icache.blocked::no_targets               0                       # number of cycles access was blocked
system.cpu.icache.avg_blocked_cycles::no_mshrs          nan                       # average number of cycles each access was blocked
system.cpu.icache.avg_blocked_cycles::no_targets          nan                       # average number of cycles each access was blocked
system.cpu.icache.writebacks::writebacks           46                       # number of writebacks
system.cpu.icache.writebacks::total                46                       # number of writebacks
system.cpu.icache.ReadReq_mshr_misses::cpu.inst          356                       # number of ReadReq MSHR misses
system.cpu.icache.ReadReq_mshr_misses::total          356                       # number of ReadReq MSHR misses
system.cpu.icache.demand_mshr_misses::cpu.inst          356                       # number of demand (read+write) MSHR misses
system.cpu.icache.demand_mshr_misses::total          356                       # number of demand (read+write) MSHR misses
system.cpu.icache.overall_mshr_misses::cpu.inst          356                       # number of overall MSHR misses
system.cpu.icache.overall_mshr_misses::total          356                       # number of overall MSHR misses
system.cpu.icache.ReadReq_mshr_miss_latency::cpu.inst     68145000                       # number of ReadReq MSHR miss cycles
system.cpu.icache.ReadReq_mshr_miss_latency::total     68145000                       # number of ReadReq MSHR miss cycles
system.cpu.icache.demand_mshr_miss_latency::cpu.inst     68145000                       # number of demand (read+write) MSHR miss cycles
system.cpu.icache.demand_mshr_miss_latency::total     68145000                       # number of demand (read+write) MSHR miss cycles
system.cpu.icache.overall_mshr_miss_latency::cpu.inst     68145000                       # number of overall MSHR miss cycles
system.cpu.icache.overall_mshr_miss_latency::total     68145000                       # number of overall MSHR miss cycles
system.cpu.icache.ReadReq_mshr_miss_rate::cpu.inst     0.000006                       # mshr miss rate for ReadReq accesses
system.cpu.icache.ReadReq_mshr_miss_rate::total     0.000006                       # mshr miss rate for ReadReq accesses
system.cpu.icache.demand_mshr_miss_rate::cpu.inst     0.000006                       # mshr miss rate for demand accesses
system.cpu.icache.demand_mshr_miss_rate::total     0.000006                       # mshr miss rate for demand accesses
system.cpu.icache.overall_mshr_miss_rate::cpu.inst     0.000006                       # mshr miss rate for overall accesses
system.cpu.icache.overall_mshr_miss_rate::total     0.000006                       # mshr miss rate for overall accesses
system.cpu.icache.ReadReq_avg_mshr_miss_latency::cpu.inst 191418.539326                       # average ReadReq mshr miss latency
system.cpu.icache.ReadReq_avg_mshr_miss_latency::total 191418.539326                       # average ReadReq mshr miss latency
system.cpu.icache.demand_avg_mshr_miss_latency::cpu.inst 191418.539326                       # average overall mshr miss latency
system.cpu.icache.demand_avg_mshr_miss_latency::total 191418.539326                       # average overall mshr miss latency
system.cpu.icache.overall_avg_mshr_miss_latency::cpu.inst 191418.539326                       # average overall mshr miss latency
system.cpu.icache.overall_avg_mshr_miss_latency::total 191418.539326                       # average overall mshr miss latency
system.cpu.icache.replacements                     46                       # number of replacements
system.cpu.itb_walker_cache.tags.pwrStateResidencyTicks::UNDEFINED  91417995000                       # Cumulative time (in ticks) in various power states
system.cpu.itb_walker_cache.tags.tagsinuse            0                       # Cycle average of tags in use
system.cpu.itb_walker_cache.tags.total_refs            0                       # Total number of references to valid blocks.
system.cpu.itb_walker_cache.tags.sampled_refs            0                       # Sample count of references to valid blocks.
system.cpu.itb_walker_cache.tags.avg_refs          nan                       # Average number of references to valid blocks.
system.cpu.itb_walker_cache.tags.warmup_cycle            0                       # Cycle when the warmup percentage was hit.
system.cpu.itb_walker_cache.tags.tag_accesses            0                       # Number of tag accesses
system.cpu.itb_walker_cache.tags.data_accesses            0                       # Number of data accesses
system.cpu.itb_walker_cache.pwrStateResidencyTicks::UNDEFINED  91417995000                       # Cumulative time (in ticks) in various power states
system.cpu.itb_walker_cache.blocked_cycles::no_mshrs            0                       # number of cycles access was blocked
system.cpu.itb_walker_cache.blocked_cycles::no_targets            0                       # number of cycles access was blocked
system.cpu.itb_walker_cache.blocked::no_mshrs            0                       # number of cycles access was blocked
system.cpu.itb_walker_cache.blocked::no_targets            0                       # number of cycles access was blocked
system.cpu.itb_walker_cache.avg_blocked_cycles::no_mshrs          nan                       # average number of cycles each access was blocked
system.cpu.itb_walker_cache.avg_blocked_cycles::no_targets          nan                       # average number of cycles each access was blocked
system.cpu.itb_walker_cache.replacements            0                       # number of replacements
system.l2.tags.pwrStateResidencyTicks::UNDEFINED  91417995000                       # Cumulative time (in ticks) in various power states
system.l2.tags.tagsinuse                  2019.039383                       # Cycle average of tags in use
system.l2.tags.total_refs                      100281                       # Total number of references to valid blocks.
system.l2.tags.sampled_refs                     24189                       # Sample count of references to valid blocks.
system.l2.tags.avg_refs                      4.145727                       # Average number of references to valid blocks.
system.l2.tags.warmup_cycle                    434500                       # Cycle when the warmup percentage was hit.
system.l2.tags.occ_blocks::writebacks        1.417100                       # Average occupied blocks per requestor
system.l2.tags.occ_blocks::cpu.inst         11.197362                       # Average occupied blocks per requestor
system.l2.tags.occ_blocks::cpu.data       2006.424921                       # Average occupied blocks per requestor
system.l2.tags.occ_percent::writebacks       0.000692                       # Average percentage of cache occupancy
system.l2.tags.occ_percent::cpu.inst         0.005467                       # Average percentage of cache occupancy
system.l2.tags.occ_percent::cpu.data         0.979700                       # Average percentage of cache occupancy
system.l2.tags.occ_percent::total            0.985859                       # Average percentage of cache occupancy
system.l2.tags.occ_task_id_blocks::1024          2048                       # Occupied blocks per task id
system.l2.tags.age_task_id_blocks_1024::0           36                       # Occupied blocks per task id
system.l2.tags.age_task_id_blocks_1024::1           38                       # Occupied blocks per task id
system.l2.tags.age_task_id_blocks_1024::2           33                       # Occupied blocks per task id
system.l2.tags.age_task_id_blocks_1024::3           59                       # Occupied blocks per task id
system.l2.tags.age_task_id_blocks_1024::4         1882                       # Occupied blocks per task id
system.l2.tags.occ_task_id_percent::1024            1                       # Percentage of cache occupancy per task id
system.l2.tags.tag_accesses                    826437                       # Number of tag accesses
system.l2.tags.data_accesses                   826437                       # Number of data accesses
system.l2.pwrStateResidencyTicks::UNDEFINED  91417995000                       # Cumulative time (in ticks) in various power states
system.l2.WritebackDirty_hits::writebacks        43416                       # number of WritebackDirty hits
system.l2.WritebackDirty_hits::total            43416                       # number of WritebackDirty hits
system.l2.WritebackClean_hits::writebacks           46                       # number of WritebackClean hits
system.l2.WritebackClean_hits::total               46                       # number of WritebackClean hits
system.l2.UpgradeReq_hits::cpu.data              9537                       # number of UpgradeReq hits
system.l2.UpgradeReq_hits::total                 9537                       # number of UpgradeReq hits
system.l2.ReadExReq_hits::cpu.data                259                       # number of ReadExReq hits
system.l2.ReadExReq_hits::total                   259                       # number of ReadExReq hits
system.l2.ReadSharedReq_hits::cpu.data          21359                       # number of ReadSharedReq hits
system.l2.ReadSharedReq_hits::total             21359                       # number of ReadSharedReq hits
system.l2.demand_hits::cpu.data                 21618                       # number of demand (read+write) hits
system.l2.demand_hits::total                    21618                       # number of demand (read+write) hits
system.l2.overall_hits::cpu.data                21618                       # number of overall hits
system.l2.overall_hits::total                   21618                       # number of overall hits
system.l2.ReadExReq_misses::cpu.data             6439                       # number of ReadExReq misses
system.l2.ReadExReq_misses::total                6439                       # number of ReadExReq misses
system.l2.ReadCleanReq_misses::cpu.inst           356                       # number of ReadCleanReq misses
system.l2.ReadCleanReq_misses::total              356                       # number of ReadCleanReq misses
system.l2.ReadSharedReq_misses::cpu.data        17370                       # number of ReadSharedReq misses
system.l2.ReadSharedReq_misses::total           17370                       # number of ReadSharedReq misses
system.l2.demand_misses::cpu.inst                 356                       # number of demand (read+write) misses
system.l2.demand_misses::cpu.data               23809                       # number of demand (read+write) misses
system.l2.demand_misses::total                  24165                       # number of demand (read+write) misses
system.l2.overall_misses::cpu.inst                356                       # number of overall misses
system.l2.overall_misses::cpu.data              23809                       # number of overall misses
system.l2.overall_misses::total                 24165                       # number of overall misses
system.l2.ReadExReq_miss_latency::cpu.data   1287710500                       # number of ReadExReq miss cycles
system.l2.ReadExReq_miss_latency::total    1287710500                       # number of ReadExReq miss cycles
system.l2.ReadCleanReq_miss_latency::cpu.inst     67609000                       # number of ReadCleanReq miss cycles
system.l2.ReadCleanReq_miss_latency::total     67609000                       # number of ReadCleanReq miss cycles
system.l2.ReadSharedReq_miss_latency::cpu.data   3041377500                       # number of ReadSharedReq miss cycles
system.l2.ReadSharedReq_miss_latency::total   3041377500                       # number of ReadSharedReq miss cycles
system.l2.demand_miss_latency::cpu.inst      67609000                       # number of demand (read+write) miss cycles
system.l2.demand_miss_latency::cpu.data    4329088000                       # number of demand (read+write) miss cycles
system.l2.demand_miss_latency::total       4396697000                       # number of demand (read+write) miss cycles
system.l2.overall_miss_latency::cpu.inst     67609000                       # number of overall miss cycles
system.l2.overall_miss_latency::cpu.data   4329088000                       # number of overall miss cycles
system.l2.overall_miss_latency::total      4396697000                       # number of overall miss cycles
system.l2.WritebackDirty_accesses::writebacks        43416                       # number of WritebackDirty accesses(hits+misses)
system.l2.WritebackDirty_accesses::total        43416                       # number of WritebackDirty accesses(hits+misses)
system.l2.WritebackClean_accesses::writebacks           46                       # number of WritebackClean accesses(hits+misses)
system.l2.WritebackClean_accesses::total           46                       # number of WritebackClean accesses(hits+misses)
system.l2.UpgradeReq_accesses::cpu.data          9537                       # number of UpgradeReq accesses(hits+misses)
system.l2.UpgradeReq_accesses::total             9537                       # number of UpgradeReq accesses(hits+misses)
system.l2.ReadExReq_accesses::cpu.data           6698                       # number of ReadExReq accesses(hits+misses)
system.l2.ReadExReq_accesses::total              6698                       # number of ReadExReq accesses(hits+misses)
system.l2.ReadCleanReq_accesses::cpu.inst          356                       # number of ReadCleanReq accesses(hits+misses)
system.l2.ReadCleanReq_accesses::total            356                       # number of ReadCleanReq accesses(hits+misses)
system.l2.ReadSharedReq_accesses::cpu.data        38729                       # number of ReadSharedReq accesses(hits+misses)
system.l2.ReadSharedReq_accesses::total         38729                       # number of ReadSharedReq accesses(hits+misses)
system.l2.demand_accesses::cpu.inst               356                       # number of demand (read+write) accesses
system.l2.demand_accesses::cpu.data             45427                       # number of demand (read+write) accesses
system.l2.demand_accesses::total                45783                       # number of demand (read+write) accesses
system.l2.overall_accesses::cpu.inst              356                       # number of overall (read+write) accesses
system.l2.overall_accesses::cpu.data            45427                       # number of overall (read+write) accesses
system.l2.overall_accesses::total               45783                       # number of overall (read+write) accesses
system.l2.ReadExReq_miss_rate::cpu.data      0.961332                       # miss rate for ReadExReq accesses
system.l2.ReadExReq_miss_rate::total         0.961332                       # miss rate for ReadExReq accesses
system.l2.ReadCleanReq_miss_rate::cpu.inst            1                       # miss rate for ReadCleanReq accesses
system.l2.ReadCleanReq_miss_rate::total             1                       # miss rate for ReadCleanReq accesses
system.l2.ReadSharedReq_miss_rate::cpu.data     0.448501                       # miss rate for ReadSharedReq accesses
system.l2.ReadSharedReq_miss_rate::total     0.448501                       # miss rate for ReadSharedReq accesses
system.l2.demand_miss_rate::cpu.inst                1                       # miss rate for demand accesses
system.l2.demand_miss_rate::cpu.data         0.524116                       # miss rate for demand accesses
system.l2.demand_miss_rate::total            0.527816                       # miss rate for demand accesses
system.l2.overall_miss_rate::cpu.inst               1                       # miss rate for overall accesses
system.l2.overall_miss_rate::cpu.data        0.524116                       # miss rate for overall accesses
system.l2.overall_miss_rate::total           0.527816                       # miss rate for overall accesses
system.l2.ReadExReq_avg_miss_latency::cpu.data 199986.100326                       # average ReadExReq miss latency
system.l2.ReadExReq_avg_miss_latency::total 199986.100326                       # average ReadExReq miss latency
system.l2.ReadCleanReq_avg_miss_latency::cpu.inst 189912.921348                       # average ReadCleanReq miss latency
system.l2.ReadCleanReq_avg_miss_latency::total 189912.921348                       # average ReadCleanReq miss latency
system.l2.ReadSharedReq_avg_miss_latency::cpu.data 175093.696028                       # average ReadSharedReq miss latency
system.l2.ReadSharedReq_avg_miss_latency::total 175093.696028                       # average ReadSharedReq miss latency
system.l2.demand_avg_miss_latency::cpu.inst 189912.921348                       # average overall miss latency
system.l2.demand_avg_miss_latency::cpu.data 181825.696165                       # average overall miss latency
system.l2.demand_avg_miss_latency::total 181944.837575                       # average overall miss latency
system.l2.overall_avg_miss_latency::cpu.inst 189912.921348                       # average overall miss latency
system.l2.overall_avg_miss_latency::cpu.data 181825.696165                       # average overall miss latency
system.l2.overall_avg_miss_latency::total 181944.837575                       # average overall miss latency
system.l2.blocked_cycles::no_mshrs                  0                       # number of cycles access was blocked
system.l2.blocked_cycles::no_targets                0                       # number of cycles access was blocked
system.l2.blocked::no_mshrs                         0                       # number of cycles access was blocked
system.l2.blocked::no_targets                       0                       # number of cycles access was blocked
system.l2.avg_blocked_cycles::no_mshrs            nan                       # average number of cycles each access was blocked
system.l2.avg_blocked_cycles::no_targets          nan                       # average number of cycles each access was blocked
system.l2.writebacks::writebacks                21681                       # number of writebacks
system.l2.writebacks::total                     21681                       # number of writebacks
system.l2.ReadExReq_mshr_misses::cpu.data         6439                       # number of ReadExReq MSHR misses
system.l2.ReadExReq_mshr_misses::total           6439                       # number of ReadExReq MSHR misses
system.l2.ReadCleanReq_mshr_misses::cpu.inst          356                       # number of ReadCleanReq MSHR misses
system.l2.ReadCleanReq_mshr_misses::total          356                       # number of ReadCleanReq MSHR misses
system.l2.ReadSharedReq_mshr_misses::cpu.data        17370                       # number of ReadSharedReq MSHR misses
system.l2.ReadSharedReq_mshr_misses::total        17370                       # number of ReadSharedReq MSHR misses
system.l2.demand_mshr_misses::cpu.inst            356                       # number of demand (read+write) MSHR misses
system.l2.demand_mshr_misses::cpu.data          23809                       # number of demand (read+write) MSHR misses
system.l2.demand_mshr_misses::total             24165                       # number of demand (read+write) MSHR misses
system.l2.overall_mshr_misses::cpu.inst           356                       # number of overall MSHR misses
system.l2.overall_mshr_misses::cpu.data         23809                       # number of overall MSHR misses
system.l2.overall_mshr_misses::total            24165                       # number of overall MSHR misses
system.l2.ReadExReq_mshr_miss_latency::cpu.data   1223320500                       # number of ReadExReq MSHR miss cycles
system.l2.ReadExReq_mshr_miss_latency::total   1223320500                       # number of ReadExReq MSHR miss cycles
system.l2.ReadCleanReq_mshr_miss_latency::cpu.inst     64049000                       # number of ReadCleanReq MSHR miss cycles
system.l2.ReadCleanReq_mshr_miss_latency::total     64049000                       # number of ReadCleanReq MSHR miss cycles
system.l2.ReadSharedReq_mshr_miss_latency::cpu.data   2867677500                       # number of ReadSharedReq MSHR miss cycles
system.l2.ReadSharedReq_mshr_miss_latency::total   2867677500                       # number of ReadSharedReq MSHR miss cycles
system.l2.demand_mshr_miss_latency::cpu.inst     64049000                       # number of demand (read+write) MSHR miss cycles
system.l2.demand_mshr_miss_latency::cpu.data   4090998000                       # number of demand (read+write) MSHR miss cycles
system.l2.demand_mshr_miss_latency::total   4155047000                       # number of demand (read+write) MSHR miss cycles
system.l2.overall_mshr_miss_latency::cpu.inst     64049000                       # number of overall MSHR miss cycles
system.l2.overall_mshr_miss_latency::cpu.data   4090998000                       # number of overall MSHR miss cycles
system.l2.overall_mshr_miss_latency::total   4155047000                       # number of overall MSHR miss cycles
system.l2.ReadExReq_mshr_miss_rate::cpu.data     0.961332                       # mshr miss rate for ReadExReq accesses
system.l2.ReadExReq_mshr_miss_rate::total     0.961332                       # mshr miss rate for ReadExReq accesses
system.l2.ReadCleanReq_mshr_miss_rate::cpu.inst            1                       # mshr miss rate for ReadCleanReq accesses
system.l2.ReadCleanReq_mshr_miss_rate::total            1                       # mshr miss rate for ReadCleanReq accesses
system.l2.ReadSharedReq_mshr_miss_rate::cpu.data     0.448501                       # mshr miss rate for ReadSharedReq accesses
system.l2.ReadSharedReq_mshr_miss_rate::total     0.448501                       # mshr miss rate for ReadSharedReq accesses
system.l2.demand_mshr_miss_rate::cpu.inst            1                       # mshr miss rate for demand accesses
system.l2.demand_mshr_miss_rate::cpu.data     0.524116                       # mshr miss rate for demand accesses
system.l2.demand_mshr_miss_rate::total       0.527816                       # mshr miss rate for demand accesses
system.l2.overall_mshr_miss_rate::cpu.inst            1                       # mshr miss rate for overall accesses
system.l2.overall_mshr_miss_rate::cpu.data     0.524116                       # mshr miss rate for overall accesses
system.l2.overall_mshr_miss_rate::total      0.527816                       # mshr miss rate for overall accesses
system.l2.ReadExReq_avg_mshr_miss_latency::cpu.data 189986.100326                       # average ReadExReq mshr miss latency
system.l2.ReadExReq_avg_mshr_miss_latency::total 189986.100326                       # average ReadExReq mshr miss latency
system.l2.ReadCleanReq_avg_mshr_miss_latency::cpu.inst 179912.921348                       # average ReadCleanReq mshr miss latency
system.l2.ReadCleanReq_avg_mshr_miss_latency::total 179912.921348                       # average ReadCleanReq mshr miss latency
system.l2.ReadSharedReq_avg_mshr_miss_latency::cpu.data 165093.696028                       # average ReadSharedReq mshr miss latency
system.l2.ReadSharedReq_avg_mshr_miss_latency::total 165093.696028                       # average ReadSharedReq mshr miss latency
system.l2.demand_avg_mshr_miss_latency::cpu.inst 179912.921348                       # average overall mshr miss latency
system.l2.demand_avg_mshr_miss_latency::cpu.data 171825.696165                       # average overall mshr miss latency
system.l2.demand_avg_mshr_miss_latency::total 171944.837575                       # average overall mshr miss latency
system.l2.overall_avg_mshr_miss_latency::cpu.inst 179912.921348                       # average overall mshr miss latency
system.l2.overall_avg_mshr_miss_latency::cpu.data 171825.696165                       # average overall mshr miss latency
system.l2.overall_avg_mshr_miss_latency::total 171944.837575                       # average overall mshr miss latency
system.l2.replacements                          22141                       # number of replacements
system.l3.tags.pwrStateResidencyTicks::UNDEFINED  91417995000                       # Cumulative time (in ticks) in various power states
system.l3.tags.tagsinuse                  3922.888820                       # Cycle average of tags in use
system.l3.tags.total_refs                       45915                       # Total number of references to valid blocks.
system.l3.tags.sampled_refs                     19138                       # Sample count of references to valid blocks.
system.l3.tags.avg_refs                      2.399154                       # Average number of references to valid blocks.
system.l3.tags.warmup_cycle                    418000                       # Cycle when the warmup percentage was hit.
system.l3.tags.occ_blocks::writebacks      605.104660                       # Average occupied blocks per requestor
system.l3.tags.occ_blocks::cpu.inst         14.957018                       # Average occupied blocks per requestor
system.l3.tags.occ_blocks::cpu.data       3302.827141                       # Average occupied blocks per requestor
system.l3.tags.occ_percent::writebacks       0.147731                       # Average percentage of cache occupancy
system.l3.tags.occ_percent::cpu.inst         0.003652                       # Average percentage of cache occupancy
system.l3.tags.occ_percent::cpu.data         0.806354                       # Average percentage of cache occupancy
system.l3.tags.occ_percent::total            0.957737                       # Average percentage of cache occupancy
system.l3.tags.occ_task_id_blocks::1024          4096                       # Occupied blocks per task id
system.l3.tags.age_task_id_blocks_1024::0           31                       # Occupied blocks per task id
system.l3.tags.age_task_id_blocks_1024::1           33                       # Occupied blocks per task id
system.l3.tags.age_task_id_blocks_1024::2           33                       # Occupied blocks per task id
system.l3.tags.age_task_id_blocks_1024::3           39                       # Occupied blocks per task id
system.l3.tags.age_task_id_blocks_1024::4         3960                       # Occupied blocks per task id
system.l3.tags.occ_task_id_percent::1024            1                       # Percentage of cache occupancy per task id
system.l3.tags.tag_accesses                     65148                       # Number of tag accesses
system.l3.tags.data_accesses                    65148                       # Number of data accesses
system.l3.pwrStateResidencyTicks::UNDEFINED  91417995000                       # Cumulative time (in ticks) in various power states
system.l3.WritebackDirty_hits::writebacks        21681                       # number of WritebackDirty hits
system.l3.WritebackDirty_hits::total            21681                       # number of WritebackDirty hits
system.l3.ReadExReq_hits::cpu.data                 35                       # number of ReadExReq hits
system.l3.ReadExReq_hits::total                    35                       # number of ReadExReq hits
system.l3.ReadSharedReq_hits::cpu.data          10562                       # number of ReadSharedReq hits
system.l3.ReadSharedReq_hits::total             10562                       # number of ReadSharedReq hits
system.l3.demand_hits::cpu.data                 10597                       # number of demand (read+write) hits
system.l3.demand_hits::total                    10597                       # number of demand (read+write) hits
system.l3.overall_hits::cpu.data                10597                       # number of overall hits
system.l3.overall_hits::total                   10597                       # number of overall hits
system.l3.ReadExReq_misses::cpu.data             6404                       # number of ReadExReq misses
system.l3.ReadExReq_misses::total                6404                       # number of ReadExReq misses
system.l3.ReadSharedReq_misses::cpu.inst          356                       # number of ReadSharedReq misses
system.l3.ReadSharedReq_misses::cpu.data         6808                       # number of ReadSharedReq misses
system.l3.ReadSharedReq_misses::total            7164                       # number of ReadSharedReq misses
system.l3.demand_misses::cpu.inst                 356                       # number of demand (read+write) misses
system.l3.demand_misses::cpu.data               13212                       # number of demand (read+write) misses
system.l3.demand_misses::total                  13568                       # number of demand (read+write) misses
system.l3.overall_misses::cpu.inst                356                       # number of overall misses
system.l3.overall_misses::cpu.data              13212                       # number of overall misses
system.l3.overall_misses::total                 13568                       # number of overall misses
system.l3.ReadExReq_miss_latency::cpu.data   1151914000                       # number of ReadExReq miss cycles
system.l3.ReadExReq_miss_latency::total    1151914000                       # number of ReadExReq miss cycles
system.l3.ReadSharedReq_miss_latency::cpu.inst     60133000                       # number of ReadSharedReq miss cycles
system.l3.ReadSharedReq_miss_latency::cpu.data   2502334500                       # number of ReadSharedReq miss cycles
system.l3.ReadSharedReq_miss_latency::total   2562467500                       # number of ReadSharedReq miss cycles
system.l3.demand_miss_latency::cpu.inst      60133000                       # number of demand (read+write) miss cycles
system.l3.demand_miss_latency::cpu.data    3654248500                       # number of demand (read+write) miss cycles
system.l3.demand_miss_latency::total       3714381500                       # number of demand (read+write) miss cycles
system.l3.overall_miss_latency::cpu.inst     60133000                       # number of overall miss cycles
system.l3.overall_miss_latency::cpu.data   3654248500                       # number of overall miss cycles
system.l3.overall_miss_latency::total      3714381500                       # number of overall miss cycles
system.l3.WritebackDirty_accesses::writebacks        21681                       # number of WritebackDirty accesses(hits+misses)
system.l3.WritebackDirty_accesses::total        21681                       # number of WritebackDirty accesses(hits+misses)
system.l3.ReadExReq_accesses::cpu.data           6439                       # number of ReadExReq accesses(hits+misses)
system.l3.ReadExReq_accesses::total              6439                       # number of ReadExReq accesses(hits+misses)
system.l3.ReadSharedReq_accesses::cpu.inst          356                       # number of ReadSharedReq accesses(hits+misses)
system.l3.ReadSharedReq_accesses::cpu.data        17370                       # number of ReadSharedReq accesses(hits+misses)
system.l3.ReadSharedReq_accesses::total         17726                       # number of ReadSharedReq accesses(hits+misses)
system.l3.demand_accesses::cpu.inst               356                       # number of demand (read+write) accesses
system.l3.demand_accesses::cpu.data             23809                       # number of demand (read+write) accesses
system.l3.demand_accesses::total                24165                       # number of demand (read+write) accesses
system.l3.overall_accesses::cpu.inst              356                       # number of overall (read+write) accesses
system.l3.overall_accesses::cpu.data            23809                       # number of overall (read+write) accesses
system.l3.overall_accesses::total               24165                       # number of overall (read+write) accesses
system.l3.ReadExReq_miss_rate::cpu.data      0.994564                       # miss rate for ReadExReq accesses
system.l3.ReadExReq_miss_rate::total         0.994564                       # miss rate for ReadExReq accesses
system.l3.ReadSharedReq_miss_rate::cpu.inst            1                       # miss rate for ReadSharedReq accesses
system.l3.ReadSharedReq_miss_rate::cpu.data     0.391940                       # miss rate for ReadSharedReq accesses
system.l3.ReadSharedReq_miss_rate::total     0.404152                       # miss rate for ReadSharedReq accesses
system.l3.demand_miss_rate::cpu.inst                1                       # miss rate for demand accesses
system.l3.demand_miss_rate::cpu.data         0.554916                       # miss rate for demand accesses
system.l3.demand_miss_rate::total            0.561473                       # miss rate for demand accesses
system.l3.overall_miss_rate::cpu.inst               1                       # miss rate for overall accesses
system.l3.overall_miss_rate::cpu.data        0.554916                       # miss rate for overall accesses
system.l3.overall_miss_rate::total           0.561473                       # miss rate for overall accesses
system.l3.ReadExReq_avg_miss_latency::cpu.data 179874.141162                       # average ReadExReq miss latency
system.l3.ReadExReq_avg_miss_latency::total 179874.141162                       # average ReadExReq miss latency
system.l3.ReadSharedReq_avg_miss_latency::cpu.inst 168912.921348                       # average ReadSharedReq miss latency
system.l3.ReadSharedReq_avg_miss_latency::cpu.data 367557.946533                       # average ReadSharedReq miss latency
system.l3.ReadSharedReq_avg_miss_latency::total 357686.697376                       # average ReadSharedReq miss latency
system.l3.demand_avg_miss_latency::cpu.inst 168912.921348                       # average overall miss latency
system.l3.demand_avg_miss_latency::cpu.data 276585.566152                       # average overall miss latency
system.l3.demand_avg_miss_latency::total 273760.428950                       # average overall miss latency
system.l3.overall_avg_miss_latency::cpu.inst 168912.921348                       # average overall miss latency
system.l3.overall_avg_miss_latency::cpu.data 276585.566152                       # average overall miss latency
system.l3.overall_avg_miss_latency::total 273760.428950                       # average overall miss latency
system.l3.blocked_cycles::no_mshrs                  0                       # number of cycles access was blocked
system.l3.blocked_cycles::no_targets                0                       # number of cycles access was blocked
system.l3.blocked::no_mshrs                         0                       # number of cycles access was blocked
system.l3.blocked::no_targets                       0                       # number of cycles access was blocked
system.l3.avg_blocked_cycles::no_mshrs            nan                       # average number of cycles each access was blocked
system.l3.avg_blocked_cycles::no_targets          nan                       # average number of cycles each access was blocked
system.l3.writebacks::writebacks                 8947                       # number of writebacks
system.l3.writebacks::total                      8947                       # number of writebacks
system.l3.CleanEvict_mshr_misses::writebacks           95                       # number of CleanEvict MSHR misses
system.l3.CleanEvict_mshr_misses::total            95                       # number of CleanEvict MSHR misses
system.l3.ReadExReq_mshr_misses::cpu.data         6404                       # number of ReadExReq MSHR misses
system.l3.ReadExReq_mshr_misses::total           6404                       # number of ReadExReq MSHR misses
system.l3.ReadSharedReq_mshr_misses::cpu.inst          356                       # number of ReadSharedReq MSHR misses
system.l3.ReadSharedReq_mshr_misses::cpu.data         6808                       # number of ReadSharedReq MSHR misses
system.l3.ReadSharedReq_mshr_misses::total         7164                       # number of ReadSharedReq MSHR misses
system.l3.demand_mshr_misses::cpu.inst            356                       # number of demand (read+write) MSHR misses
system.l3.demand_mshr_misses::cpu.data          13212                       # number of demand (read+write) MSHR misses
system.l3.demand_mshr_misses::total             13568                       # number of demand (read+write) MSHR misses
system.l3.overall_mshr_misses::cpu.inst           356                       # number of overall MSHR misses
system.l3.overall_mshr_misses::cpu.data         13212                       # number of overall MSHR misses
system.l3.overall_mshr_misses::total            13568                       # number of overall MSHR misses
system.l3.ReadExReq_mshr_miss_latency::cpu.data   1049450000                       # number of ReadExReq MSHR miss cycles
system.l3.ReadExReq_mshr_miss_latency::total   1049450000                       # number of ReadExReq MSHR miss cycles
system.l3.ReadSharedReq_mshr_miss_latency::cpu.inst     54437000                       # number of ReadSharedReq MSHR miss cycles
system.l3.ReadSharedReq_mshr_miss_latency::cpu.data   2393406500                       # number of ReadSharedReq MSHR miss cycles
system.l3.ReadSharedReq_mshr_miss_latency::total   2447843500                       # number of ReadSharedReq MSHR miss cycles
system.l3.demand_mshr_miss_latency::cpu.inst     54437000                       # number of demand (read+write) MSHR miss cycles
system.l3.demand_mshr_miss_latency::cpu.data   3442856500                       # number of demand (read+write) MSHR miss cycles
system.l3.demand_mshr_miss_latency::total   3497293500                       # number of demand (read+write) MSHR miss cycles
system.l3.overall_mshr_miss_latency::cpu.inst     54437000                       # number of overall MSHR miss cycles
system.l3.overall_mshr_miss_latency::cpu.data   3442856500                       # number of overall MSHR miss cycles
system.l3.overall_mshr_miss_latency::total   3497293500                       # number of overall MSHR miss cycles
system.l3.CleanEvict_mshr_miss_rate::writebacks          inf                       # mshr miss rate for CleanEvict accesses
system.l3.CleanEvict_mshr_miss_rate::total          inf                       # mshr miss rate for CleanEvict accesses
system.l3.ReadExReq_mshr_miss_rate::cpu.data     0.994564                       # mshr miss rate for ReadExReq accesses
system.l3.ReadExReq_mshr_miss_rate::total     0.994564                       # mshr miss rate for ReadExReq accesses
system.l3.ReadSharedReq_mshr_miss_rate::cpu.inst            1                       # mshr miss rate for ReadSharedReq accesses
system.l3.ReadSharedReq_mshr_miss_rate::cpu.data     0.391940                       # mshr miss rate for ReadSharedReq accesses
system.l3.ReadSharedReq_mshr_miss_rate::total     0.404152                       # mshr miss rate for ReadSharedReq accesses
system.l3.demand_mshr_miss_rate::cpu.inst            1                       # mshr miss rate for demand accesses
system.l3.demand_mshr_miss_rate::cpu.data     0.554916                       # mshr miss rate for demand accesses
system.l3.demand_mshr_miss_rate::total       0.561473                       # mshr miss rate for demand accesses
system.l3.overall_mshr_miss_rate::cpu.inst            1                       # mshr miss rate for overall accesses
system.l3.overall_mshr_miss_rate::cpu.data     0.554916                       # mshr miss rate for overall accesses
system.l3.overall_mshr_miss_rate::total      0.561473                       # mshr miss rate for overall accesses
system.l3.ReadExReq_avg_mshr_miss_latency::cpu.data 163874.141162                       # average ReadExReq mshr miss latency
system.l3.ReadExReq_avg_mshr_miss_latency::total 163874.141162                       # average ReadExReq mshr miss latency
system.l3.ReadSharedReq_avg_mshr_miss_latency::cpu.inst 152912.921348                       # average ReadSharedReq mshr miss latency
system.l3.ReadSharedReq_avg_mshr_miss_latency::cpu.data 351557.946533                       # average ReadSharedReq mshr miss latency
system.l3.ReadSharedReq_avg_mshr_miss_latency::total 341686.697376                       # average ReadSharedReq mshr miss latency
system.l3.demand_avg_mshr_miss_latency::cpu.inst 152912.921348                       # average overall mshr miss latency
system.l3.demand_avg_mshr_miss_latency::cpu.data 260585.566152                       # average overall mshr miss latency
system.l3.demand_avg_mshr_miss_latency::total 257760.428950                       # average overall mshr miss latency
system.l3.overall_avg_mshr_miss_latency::cpu.inst 152912.921348                       # average overall mshr miss latency
system.l3.overall_avg_mshr_miss_latency::cpu.data 260585.566152                       # average overall mshr miss latency
system.l3.overall_avg_mshr_miss_latency::total 257760.428950                       # average overall mshr miss latency
system.l3.replacements                          15042                       # number of replacements
system.membus.snoop_filter.tot_requests         24005                       # Total number of requests made to the snoop filter.
system.membus.snoop_filter.hit_single_requests        10437                       # Number of requests hitting in the snoop filter with a single holder of the requested data.
system.membus.snoop_filter.hit_multi_requests            0                       # Number of requests hitting in the snoop filter with multiple (>1) holders of the requested data.
system.membus.snoop_filter.tot_snoops               0                       # Total number of snoops made to the snoop filter.
system.membus.snoop_filter.hit_single_snoops            0                       # Number of snoops hitting in the snoop filter with a single holder of the requested data.
system.membus.snoop_filter.hit_multi_snoops            0                       # Number of snoops hitting in the snoop filter with multiple (>1) holders of the requested data.
system.membus.pwrStateResidencyTicks::UNDEFINED  91417995000                       # Cumulative time (in ticks) in various power states
system.membus.trans_dist::ReadResp               7164                       # Transaction distribution
system.membus.trans_dist::WritebackDirty         8947                       # Transaction distribution
system.membus.trans_dist::CleanEvict              136                       # Transaction distribution
system.membus.trans_dist::ReadExReq              6404                       # Transaction distribution
system.membus.trans_dist::ReadExResp             6404                       # Transaction distribution
system.membus.trans_dist::ReadSharedReq          7164                       # Transaction distribution
system.membus.pkt_count_system.l3.mem_side::system.mem_ctrls.port        36219                       # Packet count per connected master and slave (bytes)
system.membus.pkt_count_system.l3.mem_side::total        36219                       # Packet count per connected master and slave (bytes)
system.membus.pkt_count::total                  36219                       # Packet count per connected master and slave (bytes)
system.membus.pkt_size_system.l3.mem_side::system.mem_ctrls.port      1440960                       # Cumulative packet size per connected master and slave (bytes)
system.membus.pkt_size_system.l3.mem_side::total      1440960                       # Cumulative packet size per connected master and slave (bytes)
system.membus.pkt_size::total                 1440960                       # Cumulative packet size per connected master and slave (bytes)
system.membus.snoops                                0                       # Total snoops (count)
system.membus.snoopTraffic                          0                       # Total snoop traffic (bytes)
system.membus.snoop_fanout::samples             13568                       # Request fanout histogram
system.membus.snoop_fanout::mean                    0                       # Request fanout histogram
system.membus.snoop_fanout::stdev                   0                       # Request fanout histogram
system.membus.snoop_fanout::underflows              0      0.00%      0.00% # Request fanout histogram
system.membus.snoop_fanout::0                   13568    100.00%    100.00% # Request fanout histogram
system.membus.snoop_fanout::1                       0      0.00%    100.00% # Request fanout histogram
system.membus.snoop_fanout::overflows               0      0.00%    100.00% # Request fanout histogram
system.membus.snoop_fanout::min_value               0                       # Request fanout histogram
system.membus.snoop_fanout::max_value               0                       # Request fanout histogram
system.membus.snoop_fanout::total               13568                       # Request fanout histogram
system.membus.reqLayer2.occupancy            59796500                       # Layer occupancy (ticks)
system.membus.reqLayer2.utilization               0.1                       # Layer utilization (%)
system.membus.respLayer1.occupancy           67843500                       # Layer occupancy (ticks)
system.membus.respLayer1.utilization              0.1                       # Layer utilization (%)
system.tol2bus.snoop_filter.tot_requests       100281                       # Total number of requests made to the snoop filter.
system.tol2bus.snoop_filter.hit_single_requests        54498                       # Number of requests hitting in the snoop filter with a single holder of the requested data.
system.tol2bus.snoop_filter.hit_multi_requests            0                       # Number of requests hitting in the snoop filter with multiple (>1) holders of the requested data.
system.tol2bus.snoop_filter.tot_snoops           2784                       # Total number of snoops made to the snoop filter.
system.tol2bus.snoop_filter.hit_single_snoops         2784                       # Number of snoops hitting in the snoop filter with a single holder of the requested data.
system.tol2bus.snoop_filter.hit_multi_snoops            0                       # Number of snoops hitting in the snoop filter with multiple (>1) holders of the requested data.
system.tol2bus.pwrStateResidencyTicks::UNDEFINED  91417995000                       # Cumulative time (in ticks) in various power states
system.tol2bus.trans_dist::ReadResp             39085                       # Transaction distribution
system.tol2bus.trans_dist::WritebackDirty        65097                       # Transaction distribution
system.tol2bus.trans_dist::WritebackClean           46                       # Transaction distribution
system.tol2bus.trans_dist::CleanEvict            8013                       # Transaction distribution
system.tol2bus.trans_dist::UpgradeReq            9537                       # Transaction distribution
system.tol2bus.trans_dist::UpgradeResp           9537                       # Transaction distribution
system.tol2bus.trans_dist::ReadExReq             6698                       # Transaction distribution
system.tol2bus.trans_dist::ReadExResp            6698                       # Transaction distribution
system.tol2bus.trans_dist::ReadCleanReq           356                       # Transaction distribution
system.tol2bus.trans_dist::ReadSharedReq        38729                       # Transaction distribution
system.tol2bus.pkt_count_system.cpu.icache.mem_side::system.l2.cpu_side          758                       # Packet count per connected master and slave (bytes)
system.tol2bus.pkt_count_system.cpu.dcache.mem_side::system.l2.cpu_side       154843                       # Packet count per connected master and slave (bytes)
system.tol2bus.pkt_count::total                155601                       # Packet count per connected master and slave (bytes)
system.tol2bus.pkt_size_system.cpu.icache.mem_side::system.l2.cpu_side        25728                       # Cumulative packet size per connected master and slave (bytes)
system.tol2bus.pkt_size_system.cpu.dcache.mem_side::system.l2.cpu_side      5685952                       # Cumulative packet size per connected master and slave (bytes)
system.tol2bus.pkt_size::total                5711680                       # Cumulative packet size per connected master and slave (bytes)
system.tol2bus.snoops                           28195                       # Total snoops (count)
system.tol2bus.snoopTraffic                   1387584                       # Total snoop traffic (bytes)
system.tol2bus.snoop_fanout::samples            83515                       # Request fanout histogram
system.tol2bus.snoop_fanout::mean            0.033335                       # Request fanout histogram
system.tol2bus.snoop_fanout::stdev           0.179512                       # Request fanout histogram
system.tol2bus.snoop_fanout::underflows             0      0.00%      0.00% # Request fanout histogram
system.tol2bus.snoop_fanout::0                  80731     96.67%     96.67% # Request fanout histogram
system.tol2bus.snoop_fanout::1                   2784      3.33%    100.00% # Request fanout histogram
system.tol2bus.snoop_fanout::2                      0      0.00%    100.00% # Request fanout histogram
system.tol2bus.snoop_fanout::3                      0      0.00%    100.00% # Request fanout histogram
system.tol2bus.snoop_fanout::4                      0      0.00%    100.00% # Request fanout histogram
system.tol2bus.snoop_fanout::overflows              0      0.00%    100.00% # Request fanout histogram
system.tol2bus.snoop_fanout::min_value              0                       # Request fanout histogram
system.tol2bus.snoop_fanout::max_value              1                       # Request fanout histogram
system.tol2bus.snoop_fanout::total              83515                       # Request fanout histogram
system.tol2bus.reqLayer0.occupancy           93602500                       # Layer occupancy (ticks)
system.tol2bus.reqLayer0.utilization              0.1                       # Layer utilization (%)
system.tol2bus.respLayer0.occupancy            534000                       # Layer occupancy (ticks)
system.tol2bus.respLayer0.utilization             0.0                       # Layer utilization (%)
system.tol2bus.respLayer1.occupancy          72909000                       # Layer occupancy (ticks)
system.tol2bus.respLayer1.utilization             0.1                       # Layer utilization (%)
system.tol3bus.snoop_filter.tot_requests        46010                       # Total number of requests made to the snoop filter.
system.tol3bus.snoop_filter.hit_single_requests        21845                       # Number of requests hitting in the snoop filter with a single holder of the requested data.
system.tol3bus.snoop_filter.hit_multi_requests            0                       # Number of requests hitting in the snoop filter with multiple (>1) holders of the requested data.
system.tol3bus.snoop_filter.tot_snoops           6054                       # Total number of snoops made to the snoop filter.
system.tol3bus.snoop_filter.hit_single_snoops         6054                       # Number of snoops hitting in the snoop filter with a single holder of the requested data.
system.tol3bus.snoop_filter.hit_multi_snoops            0                       # Number of snoops hitting in the snoop filter with multiple (>1) holders of the requested data.
system.tol3bus.pwrStateResidencyTicks::UNDEFINED  91417995000                       # Cumulative time (in ticks) in various power states
system.tol3bus.trans_dist::ReadResp             17726                       # Transaction distribution
system.tol3bus.trans_dist::WritebackDirty        30628                       # Transaction distribution
system.tol3bus.trans_dist::CleanEvict            6259                       # Transaction distribution
system.tol3bus.trans_dist::ReadExReq             6439                       # Transaction distribution
system.tol3bus.trans_dist::ReadExResp            6439                       # Transaction distribution
system.tol3bus.trans_dist::ReadSharedReq        17726                       # Transaction distribution
system.tol3bus.pkt_count_system.l2.mem_side::system.l3.cpu_side        70175                       # Packet count per connected master and slave (bytes)
system.tol3bus.pkt_size_system.l2.mem_side::system.l3.cpu_side      2934144                       # Cumulative packet size per connected master and slave (bytes)
system.tol3bus.snoops                           15042                       # Total snoops (count)
system.tol3bus.snoopTraffic                    572608                       # Total snoop traffic (bytes)
system.tol3bus.snoop_fanout::samples            39207                       # Request fanout histogram
system.tol3bus.snoop_fanout::mean            0.154411                       # Request fanout histogram
system.tol3bus.snoop_fanout::stdev           0.361347                       # Request fanout histogram
system.tol3bus.snoop_fanout::underflows             0      0.00%      0.00% # Request fanout histogram
system.tol3bus.snoop_fanout::0                  33153     84.56%     84.56% # Request fanout histogram
system.tol3bus.snoop_fanout::1                   6054     15.44%    100.00% # Request fanout histogram
system.tol3bus.snoop_fanout::overflows              0      0.00%    100.00% # Request fanout histogram
system.tol3bus.snoop_fanout::min_value              0                       # Request fanout histogram
system.tol3bus.snoop_fanout::max_value              1                       # Request fanout histogram
system.tol3bus.snoop_fanout::total              39207                       # Request fanout histogram
system.tol3bus.reqLayer0.occupancy           44686000                       # Layer occupancy (ticks)
system.tol3bus.reqLayer0.utilization              0.0                       # Layer utilization (%)
system.tol3bus.respLayer0.occupancy          36247500                       # Layer occupancy (ticks)
system.tol3bus.respLayer0.utilization             0.0                       # Layer utilization (%)

---------- End Simulation Statistics   ----------
